OpenDSSFiles/IEEETestCases/NEVTestCase/Lines.DSS
! LINE DEFINITIONS

! 4-CIRCUIT SECTION FROM THE SUBSTATION TO THE 5TH POLE (P5)

! BUS DEFINITIONS
!   A "BUS" CONTAINS ONE OR MORE "NODES" WHICH MAY BE NUMBERED ARBITRARILY
!   SYNTAX: busname.node1.node2.node3....

! NODE 4 AT THE SUB BUS (13KVBUS) IS THE NEUTRAL OF THE TRANSFORMER. 
! NODE 10 IS DEFINED AS THE GROUND GRID. THE NEUTRAL AND ALL 4 MESSENGERS 
! ARE ASSUMED CONNECTED TO THIS NODE AT THE SUBSTATION

! CIRCUIT 1 PHASE CONDUCTORS => NODES 11, 12, 13; CIRCUIT 2 => NODES 21, 22, 23; ETC.
! ALL NEUTRAL CONDUCTORS CONNECTED TO NODE 10 OF EACH BUS
! 17 CONDUCTORS ON EACH POLE
New Line.quad-1 bus1=13kvbus.1.2.3.1.2.3.1.2.3.1.2.3.10.10.10.10.10             bus2=quad-1.11.12.13.21.22.23.31.32.33.41.42.43.10.10.10.10.10 Geometry=quadcircuit Length=75 units=m
New Line.quad-2 bus1=quad-1.11.12.13.21.22.23.31.32.33.41.42.43.10.10.10.10.10  bus2=quad-2.11.12.13.21.22.23.31.32.33.41.42.43.10.10.10.10.10 Geometry=quadcircuit Length=75 units=m
New Line.quad-3 bus1=quad-2.11.12.13.21.22.23.31.32.33.41.42.43.10.10.10.10.10  bus2=quad-3.11.12.13.21.22.23.31.32.33.41.42.43.10.10.10.10.10 Geometry=quadcircuit Length=75 units=m
New Line.quad-4 bus1=quad-3.11.12.13.21.22.23.31.32.33.41.42.43.10.10.10.10.10  bus2=quad-4.11.12.13.21.22.23.31.32.33.41.42.43.10.10.10.10.10 Geometry=quadcircuit Length=75 units=m
New Line.quad-5 bus1=quad-4.11.12.13.21.22.23.31.32.33.41.42.43.10.10.10.10.10  bus2=quad-5.11.12.13.21.22.23.31.32.33.41.42.43.10.10.10.10.10 Geometry=quadcircuit Length=75 units=m

! DOUBLE CIRCUIT SECTION (6 SPANS:)
! Circuits 3 and 4
! Use Nodes 31..33 and 41..43 for consistency; Node 10 for neutrals
! 9 CONDUCTORS ON EACH POLE
New Line.double-1 bus1=quad-5.31.32.33.41.42.43.10.10.10    bus2=double-1.31.32.33.41.42.43.10.10.10  Geometry=doublecircuit Length=75 units=m
New Line.double-2 bus1=double-1.31.32.33.41.42.43.10.10.10  bus2=double-2.31.32.33.41.42.43.10.10.10  Geometry=doublecircuit Length=75 units=m
New Line.double-3 bus1=double-2.31.32.33.41.42.43.10.10.10  bus2=double-3.31.32.33.41.42.43.10.10.10  Geometry=doublecircuit Length=75 units=m
New Line.double-4 bus1=double-3.31.32.33.41.42.43.10.10.10  bus2=double-4.31.32.33.41.42.43.10.10.10  Geometry=doublecircuit Length=75 units=m
New Line.double-5 bus1=double-4.31.32.33.41.42.43.10.10.10  bus2=double-5.31.32.33.41.42.43.10.10.10  Geometry=doublecircuit Length=75 units=m
New Line.double-6 bus1=double-5.31.32.33.41.42.43.10.10.10  bus2=double-6.31.32.33.41.42.43.10.10.10  Geometry=doublecircuit Length=75 units=m

! REMAINDER OF CIRCUIT 1 (STARTS WITH 6TH SPAN)
! Note: use Nodes 1..3 for phases
New Line.ckt1-6  bus1=quad-5.11.12.13.10.10  bus2=ckt1-6.1.2.3.10.10  Geometry=singlecircuit Length=75 units=m
New Line.ckt1-7  bus1=ckt1-6.1.2.3.10.10   bus2=ckt1-7.1.2.3.10.10  Geometry=singlecircuit Length=75 units=m
New Line.ckt1-8  bus1=ckt1-7.1.2.3.10.10   bus2=ckt1-8.1.2.3.10.10  Geometry=singlecircuit Length=75 units=m
New Line.ckt1-9  bus1=ckt1-8.1.2.3.10.10   bus2=ckt1-9.1.2.3.10.10  Geometry=singlecircuit Length=75 units=m
New Line.ckt1-10 bus1=ckt1-9.1.2.3.10.10   bus2=ckt1-10.1.2.3.10.10  Geometry=singlecircuit Length=75 units=m
New Line.ckt1-11 bus1=ckt1-10.1.2.3.10.10  bus2=ckt1-11.1.2.3.10.10  Geometry=singlecircuit Length=75 units=m
New Line.ckt1-12 bus1=ckt1-11.1.2.3.10.10  bus2=ckt1-12.1.2.3.10.10  Geometry=singlecircuit Length=75 units=m
New Line.ckt1-13 bus1=ckt1-12.1.2.3.10.10  bus2=ckt1-13.1.2.3.10.10  Geometry=singlecircuit Length=75 units=m

! Single-phase lateral on Circuit 1 (7 spans from phase A(1) of pole 1-12)
! Use Node 1 for phase conductor and Node 10 for neutral conductors
New Line.ckt1-1-1 bus1=ckt1-12.1.10.10    bus2=ckt1-1-1.1.10.10  Geometry=1phline Length=75 units=m
New Line.ckt1-1-2 bus1=ckt1-1-1.1.10.10   bus2=ckt1-1-2.1.10.10  Geometry=1phline Length=75 units=m
New Line.ckt1-1-3 bus1=ckt1-1-2.1.10.10   bus2=ckt1-1-3.1.10.10  Geometry=1phline Length=75 units=m
New Line.ckt1-1-4 bus1=ckt1-1-3.1.10.10   bus2=ckt1-1-4.1.10.10  Geometry=1phline Length=75 units=m
New Line.ckt1-1-5 bus1=ckt1-1-4.1.10.10   bus2=ckt1-1-5.1.10.10  Geometry=1phline Length=75 units=m
New Line.ckt1-1-6 bus1=ckt1-1-5.1.10.10   bus2=ckt1-1-6.1.10.10  Geometry=1phline Length=75 units=m
New Line.ckt1-1-7 bus1=ckt1-1-6.1.10.10   bus2=ckt1-1-7.1.10.10  Geometry=1phline Length=75 units=m

! REMAINDER OF CIRCUIT 2 (STARTS WITH 6TH SPAN)
! Note that this connects to nodes 21..23 on Bus P5
New Line.ckt2-6  bus1=quad-5.21.22.23.10.10    bus2=ckt2-6.1.2.3.10.10  Geometry=singlecircuit Length=75 units=m
New Line.ckt2-7  bus1=ckt2-6.1.2.3.10.10       bus2=ckt2-7.1.2.3.10.10  Geometry=singlecircuit Length=75 units=m
New Line.ckt2-8  bus1=ckt2-7.1.2.3.10.10       bus2=ckt2-8.1.2.3.10.10  Geometry=singlecircuit Length=75 units=m
New Line.ckt2-9  bus1=ckt2-8.1.2.3.10.10       bus2=ckt2-9.1.2.3.10.10  Geometry=singlecircuit Length=75 units=m
New Line.ckt2-10 bus1=ckt2-9.1.2.3.10.10       bus2=ckt2-10.1.2.3.10.10  Geometry=singlecircuit Length=75 units=m
New Line.ckt2-11 bus1=ckt2-10.1.2.3.10.10      bus2=ckt2-11.1.2.3.10.10  Geometry=singlecircuit Length=75 units=m
New Line.ckt2-12 bus1=ckt2-11.1.2.3.10.10      bus2=ckt2-12.1.2.3.10.10  Geometry=singlecircuit Length=75 units=m
New Line.ckt2-13 bus1=ckt2-12.1.2.3.10.10      bus2=ckt2-13.1.2.3.10.10  Geometry=singlecircuit Length=75 units=m
New Line.ckt2-14 bus1=ckt2-13.1.2.3.10.10      bus2=ckt2-14.1.2.3.10.10  Geometry=singlecircuit Length=75 units=m
New Line.ckt2-15 bus1=ckt2-14.1.2.3.10.10      bus2=ckt2-15.1.2.3.10.10  Geometry=singlecircuit Length=75 units=m
New Line.ckt2-16 bus1=ckt2-15.1.2.3.10.10      bus2=ckt2-16.1.2.3.10.10  Geometry=singlecircuit Length=75 units=m
New Line.ckt2-17 bus1=ckt2-16.1.2.3.10.10      bus2=ckt2-17.1.2.3.10.10  Geometry=singlecircuit Length=75 units=m
New Line.ckt2-18 bus1=ckt2-17.1.2.3.10.10      bus2=ckt2-18.1.2.3.10.10  Geometry=singlecircuit Length=75 units=m
New Line.ckt2-19 bus1=ckt2-18.1.2.3.10.10      bus2=ckt2-19.1.2.3.10.10  Geometry=singlecircuit Length=75 units=m

! Single-phase lateral on Circuit 2 (5 Spans from phase C(3) of circuit 2 on pole 3 of the quad ckt)
! Use Node 1 for phase conductor and Node 10 for neutral conductors
New Line.ckt2-1-1 bus1=quad-3.23.10.10    bus2=ckt2-1-1.1.10.10  Geometry=1phline Length=75 units=m
New Line.ckt2-1-2 bus1=ckt2-1-1.1.10.10   bus2=ckt2-1-2.1.10.10  Geometry=1phline Length=75 units=m
New Line.ckt2-1-3 bus1=ckt2-1-2.1.10.10   bus2=ckt2-1-3.1.10.10  Geometry=1phline Length=75 units=m
New Line.ckt2-1-4 bus1=ckt2-1-3.1.10.10   bus2=ckt2-1-4.1.10.10  Geometry=1phline Length=75 units=m
New Line.ckt2-1-5 bus1=ckt2-1-4.1.10.10   bus2=ckt2-1-5.1.10.10  Geometry=1phline Length=75 units=m


! REMAINDER OF CIRCUIT 3 (STARTS WITH 12TH SPAN)
New Line.ckt3-12 bus1=double-6.31.32.33.10.10  bus2=ckt3-12.1.2.3.10.10  Geometry=singlecircuit Length=75 units=m
New Line.ckt3-13 bus1=ckt3-12.1.2.3.10.10      bus2=ckt3-13.1.2.3.10.10  Geometry=singlecircuit Length=75 units=m
New Line.ckt3-14 bus1=ckt3-13.1.2.3.10.10      bus2=ckt3-14.1.2.3.10.10  Geometry=singlecircuit Length=75 units=m
New Line.ckt3-15 bus1=ckt3-14.1.2.3.10.10      bus2=ckt3-15.1.2.3.10.10  Geometry=singlecircuit Length=75 units=m
New Line.ckt3-16 bus1=ckt3-15.1.2.3.10.10      bus2=ckt3-16.1.2.3.10.10  Geometry=singlecircuit Length=75 units=m
New Line.ckt3-17 bus1=ckt3-16.1.2.3.10.10      bus2=ckt3-17.1.2.3.10.10  Geometry=singlecircuit Length=75 units=m
New Line.ckt3-18 bus1=ckt3-17.1.2.3.10.10      bus2=ckt3-18.1.2.3.10.10  Geometry=singlecircuit Length=75 units=m
New Line.ckt3-19 bus1=ckt3-18.1.2.3.10.10      bus2=ckt3-19.1.2.3.10.10  Geometry=singlecircuit Length=75 units=m
New Line.ckt3-20 bus1=ckt3-19.1.2.3.10.10      bus2=ckt3-20.1.2.3.10.10  Geometry=singlecircuit Length=75 units=m
New Line.ckt3-21 bus1=ckt3-20.1.2.3.10.10      bus2=ckt3-21.1.2.3.10.10  Geometry=singlecircuit Length=75 units=m
New Line.ckt3-22 bus1=ckt3-21.1.2.3.10.10      bus2=ckt3-22.1.2.3.10.10  Geometry=singlecircuit Length=75 units=m
New Line.ckt3-23 bus1=ckt3-22.1.2.3.10.10      bus2=ckt3-23.1.2.3.10.10  Geometry=singlecircuit Length=75 units=m
New Line.ckt3-24 bus1=ckt3-23.1.2.3.10.10      bus2=ckt3-24.1.2.3.10.10  Geometry=singlecircuit Length=75 units=m
New Line.ckt3-25 bus1=ckt3-24.1.2.3.10.10      bus2=ckt3-25.1.2.3.10.10  Geometry=singlecircuit Length=75 units=m


! Single-phase lateral on Circuit 3 (6 Spans from phase B(2) of circuit 3 on pole 22 of ckt 3
! Use Node 1 for phase conductor and Node 10 for neutral conductors
New Line.ckt3-1-1 bus1=ckt3-22.2.10.10    bus2=ckt3-1-1.1.10.10  Geometry=1phline Length=75 units=m
New Line.ckt3-1-2 bus1=ckt3-1-1.1.10.10   bus2=ckt3-1-2.1.10.10  Geometry=1phline Length=75 units=m
New Line.ckt3-1-3 bus1=ckt3-1-2.1.10.10   bus2=ckt3-1-3.1.10.10  Geometry=1phline Length=75 units=m
New Line.ckt3-1-4 bus1=ckt3-1-3.1.10.10   bus2=ckt3-1-4.1.10.10  Geometry=1phline Length=75 units=m
New Line.ckt3-1-5 bus1=ckt3-1-4.1.10.10   bus2=ckt3-1-5.1.10.10  Geometry=1phline Length=75 units=m
New Line.ckt3-1-6 bus1=ckt3-1-5.1.10.10   bus2=ckt3-1-6.1.10.10  Geometry=1phline Length=75 units=m


! REMAINDER OF CIRCUIT 4 (STARTS WITH 12TH SPAN)
New Line.ckt4-12 bus1=double-6.41.42.43.10.10  bus2=ckt4-12.1.2.3.10.10  Geometry=singlecircuit Length=75 units=m
New Line.ckt4-13 bus1=ckt4-12.1.2.3.10.10      bus2=ckt4-13.1.2.3.10.10  Geometry=singlecircuit Length=75 units=m
New Line.ckt4-14 bus1=ckt4-13.1.2.3.10.10      bus2=ckt4-14.1.2.3.10.10  Geometry=singlecircuit Length=75 units=m
New Line.ckt4-15 bus1=ckt4-14.1.2.3.10.10      bus2=ckt4-15.1.2.3.10.10  Geometry=singlecircuit Length=75 units=m
New Line.ckt4-16 bus1=ckt4-15.1.2.3.10.10      bus2=ckt4-16.1.2.3.10.10  Geometry=singlecircuit Length=75 units=m
New Line.ckt4-17 bus1=ckt4-16.1.2.3.10.10      bus2=ckt4-17.1.2.3.10.10  Geometry=singlecircuit Length=75 units=m
New Line.ckt4-18 bus1=ckt4-17.1.2.3.10.10      bus2=ckt4-18.1.2.3.10.10  Geometry=singlecircuit Length=75 units=m

! Single-phase lateral on Circuit 4 (8 Spans from phase C(3) of circuit 4 on pole 4-15
! Use Node 1 for phase conductor and Node 10 for neutral conductors
New Line.ckt4-1-1 bus1=ckt4-15.2.10.10      bus2=ckt4-1-1.1.10.10  Geometry=1phline Length=75 units=m
New Line.ckt4-1-2 bus1=ckt4-1-1.1.10.10     bus2=ckt4-1-2.1.10.10  Geometry=1phline Length=75 units=m
New Line.ckt4-1-3 bus1=ckt4-1-2.1.10.10     bus2=ckt4-1-3.1.10.10  Geometry=1phline Length=75 units=m
New Line.ckt4-1-4 bus1=ckt4-1-3.1.10.10     bus2=ckt4-1-4.1.10.10  Geometry=1phline Length=75 units=m
New Line.ckt4-1-5 bus1=ckt4-1-4.1.10.10     bus2=ckt4-1-5.1.10.10  Geometry=1phline Length=75 units=m
New Line.ckt4-1-6 bus1=ckt4-1-5.1.10.10     bus2=ckt4-1-6.1.10.10  Geometry=1phline Length=75 units=m
New Line.ckt4-1-7 bus1=ckt4-1-6.1.10.10     bus2=ckt4-1-7.1.10.10  Geometry=1phline Length=75 units=m
New Line.ckt4-1-8 bus1=ckt4-1-7.1.10.10     bus2=ckt4-1-8.1.10.10  Geometry=1phline Length=75 units=m
